
 *******************************************************************************

         NASA-GLENN CHEMICAL EQUILIBRIUM PROGRAM CEA2, MAY 21, 2004
                   BY  BONNIE MCBRIDE AND SANFORD GORDON
      REFS: NASA RP-1311, PART I, 1994 AND NASA RP-1311, PART II, 1996

 *******************************************************************************



 problem
 	rocket
 	equilibrium
 	p=22
 	pip=21.7177
 	o/f=4.20000e+00,
 4.30000e+00,
 4.40000e+00,
 4.50000e+00,
 4.60000e+00,
 4.70000e+00,
  
 react
 	fuel=C2H5OH(L) wt=90 t,k=298
 	fuel=H2O(L) wt=10 t,k=298
 	oxid=N2O wt=100 t,k=298
 output
 	plot o/f t isp
 end

 OPTIONS: TP=F  HP=F  SP=F  TV=F  UV=F  SV=F  DETN=F  SHOCK=F  REFL=F  INCD=F
 RKT=T  FROZ=F  EQL=T  IONS=F  SIUNIT=T  DEBUGF=F  SHKDBG=F  DETDBG=F  TRNSPT=F

 TRACE= 0.00E+00  S/R= 0.000000E+00  H/R= 0.000000E+00  U/R= 0.000000E+00

 Pc,BAR =    22.000000

 Pc/P =    21.7177

 SUBSONIC AREA RATIOS =

 SUPERSONIC AREA RATIOS =

 NFZ=  1  Mdot/Ac= 0.000000E+00  Ac/At= 0.000000E+00

    REACTANT          WT.FRAC   (ENERGY/R),K   TEMP,K  DENSITY
        EXPLODED FORMULA
 F: C2H5OH(L)        0.900000  -0.333786E+05   298.00  0.0000
          C  2.00000  H  6.00000  O  1.00000
 F: H2O(L)           0.100000  -0.343786E+05   298.00  0.0000
          H  2.00000  O  1.00000
 O: N2O              1.000000   0.981347E+04   298.00  0.0000
          N  2.00000  O  1.00000

  SPECIES BEING CONSIDERED IN THIS SYSTEM
 (CONDENSED PHASE MAY HAVE NAME LISTED SEVERAL TIMES)
  LAST thermo.inp UPDATE:    9/09/04

  g 7/97  *C               tpis79  *CH              g 4/02  CH2            
  g 4/02  CH3              g11/00  CH2OH            g 7/00  CH3O           
  g 8/99  CH4              g 7/00  CH3OH            srd 01  CH3OOH         
  g 8/99  *CN              g12/99  CNN              tpis79  *CO            
  g 9/99  *CO2             tpis91  COOH             tpis91  *C2            
  g 6/01  C2H              g 1/91  C2H2,acetylene   g 5/01  C2H2,vinylidene
  g 4/02  CH2CO,ketene     g 3/02  O(CH)2O          srd 01  HO(CO)2OH      
  g 7/01  C2H3,vinyl       g 9/00  CH3CN            g 6/96  CH3CO,acetyl   
  g 1/00  C2H4             g 8/88  C2H4O,ethylen-o  g 8/88  CH3CHO,ethanal 
  g 6/00  CH3COOH          srd 01  OHCH2COOH        g 7/00  C2H5           
  g 7/00  C2H6             g 8/88  CH3N2CH3         g 8/88  C2H5OH         
  g 7/00  CH3OCH3          srd 01  CH3O2CH3         g 7/00  CCN            
  tpis91  CNC              srd 01  OCCN             tpis79  C2N2           
  g 8/00  C2O              tpis79  *C3              n 4/98  C3H3,1-propynl 
  n 4/98  C3H3,2-propynl   g 2/00  C3H4,allene      g 1/00  C3H4,propyne   
  g 5/90  C3H4,cyclo-      g 3/01  C3H5,allyl       g 2/00  C3H6,propylene 
  g 1/00  C3H6,cyclo-      g 6/01  C3H6O,propylox   g 6/97  C3H6O,acetone  
  g 1/02  C3H6O,propanal   g 7/01  C3H7,n-propyl    g 9/85  C3H7,i-propyl  
  g 2/00  C3H8             g 2/00  C3H8O,1propanol  g 2/00  C3H8O,2propanol
  srd 01  CNCOCN           g 7/88  C3O2             g tpis  *C4            
  g 7/01  C4H2,butadiyne   g 8/00  C4H4,1,3-cyclo-  n10/92  C4H6,butadiene 
  n10/93  C4H6,1butyne     n10/93  C4H6,2butyne     g 8/00  C4H6,cyclo-    
  n 4/88  C4H8,1-butene    n 4/88  C4H8,cis2-buten  n 4/88  C4H8,tr2-butene
  n 4/88  C4H8,isobutene   g 8/00  C4H8,cyclo-      g10/00  (CH3COOH)2     
  n10/84  C4H9,n-butyl     n10/84  C4H9,i-butyl     g 1/93  C4H9,s-butyl   
  g 1/93  C4H9,t-butyl     g12/00  C4H10,n-butane   g 8/00  C4H10,isobutane
  g 6/01  C4N2             g 8/00  *C5              g 5/90  C5H6,1,3cyclo- 
  g 1/93  C5H8,cyclo-      n 4/87  C5H10,1-pentene  g 2/01  C5H10,cyclo-   
  n10/84  C5H11,pentyl     g 1/93  C5H11,t-pentyl   n10/85  C5H12,n-pentane
  n10/85  C5H12,i-pentane  n10/85  CH3C(CH3)2CH3    g 2/93  C6H2           
  g11/00  C6H5,phenyl      g 8/00  C6H5O,phenoxy    g 8/00  C6H6           
  g 8/00  C6H5OH,phenol    g 1/93  C6H10,cyclo-     n 4/87  C6H12,1-hexene 
  g 6/90  C6H12,cyclo-     n10/83  C6H13,n-hexyl    g 6/01  C6H14,n-hexane 
  g 7/01  C7H7,benzyl      g 1/93  C7H8             g12/00  C7H8O,cresol-mx
  n 4/87  C7H14,1-heptene  n10/83  C7H15,n-heptyl   n10/85  C7H16,n-heptane
  n10/85  C7H16,2-methylh  n 4/89  C8H8,styrene     n10/86  C8H10,ethylbenz
  n 4/87  C8H16,1-octene   n10/83  C8H17,n-octyl    n 4/85  C8H18,n-octane 
  n 4/85  C8H18,isooctane  n10/83  C9H19,n-nonyl    g 3/01  C10H8,naphthale
  n10/83  C10H21,n-decyl   g 8/00  C12H9,o-bipheny  g 8/00  C12H10,biphenyl
  g 6/97  *H               g 6/01  HCN              g 1/01  HCO            
  tpis89  HCCN             g 6/01  HCCO             g 6/01  HNC            
  g 7/00  HNCO             g10/01  HNO              tpis89  HNO2           
  g 5/99  HNO3             g 4/02  HO2              tpis78  *H2            
  g 5/01  HCHO,formaldehy  g 6/01  HCOOH            g 8/89  H2O            
  g 6/99  H2O2             g 6/01  (HCOOH)2         g 5/97  *N             
  g 6/01  NCO              g 4/99  *NH              g 3/01  NH2            
  tpis89  NH3              tpis89  NH2OH            tpis89  *NO            
  g 4/99  NO2              j12/64  NO3              tpis78  *N2            
  g 6/01  NCN              g 5/99  N2H2             tpis89  NH2NO2         
  g 4/99  N2H4             g 4/99  N2O              g 4/99  N2O3           
  tpis89  N2O4             g 4/99  N2O5             tpis89  N3             
  g 4/99  N3H              g 5/97  *O               g 4/02  *OH            
  tpis89  *O2              g 8/01  O3               n 4/83  C(gr)          
  n 4/83  C(gr)            n 4/83  C(gr)            g11/99  H2O(cr)        
  g 8/01  H2O(L)           g 8/01  H2O(L)         

 O/F =   4.200000

                       EFFECTIVE FUEL     EFFECTIVE OXIDANT        MIXTURE
 ENTHALPY                  h(2)/R              h(1)/R               h0/R
 (KG-MOL)(K)/KG       -0.84292002E+03      0.22296858E+03      0.17990001E+02

 KG-FORM.WT./KG             bi(2)               bi(1)               b0i
  *C                   0.39072302E-01      0.00000000E+00      0.75139042E-02
  *H                   0.12831859E+00      0.00000000E+00      0.24676652E-01
  *O                   0.25086995E-01      0.22720663E-01      0.23175727E-01
  *N                   0.00000000E+00      0.45441326E-01      0.36702610E-01

 POINT ITN      T            C           H           O           N 

   1   24    3073.226     -16.670     -10.559     -16.121     -13.075

 Pinf/Pt = 1.739019
   2    4    2889.228     -16.955     -10.766     -16.509     -13.231

 Pinf/Pt = 1.741808
   2    2    2888.696     -16.955     -10.766     -16.510     -13.232

   3    5    1973.081     -16.328     -11.357     -20.679     -13.808






              THEORETICAL ROCKET PERFORMANCE ASSUMING EQUILIBRIUM

           COMPOSITION DURING EXPANSION FROM INFINITE AREA COMBUSTOR

 Pin =   319.1 PSIA
 CASE =                

             REACTANT                    WT FRACTION      ENERGY      TEMP
                                          (SEE NOTE)     KJ/KG-MOL      K  
 FUEL        C2H5OH(L)                    0.9000000   -277526.835    298.000
 FUEL        H2O(L)                       0.1000000   -285841.390    298.000
 OXIDANT     N2O                          1.0000000     81594.206    298.000

 O/F=    4.20000  %FUEL= 19.230769  R,EQ.RATIO= 1.180810  PHI,EQ.RATIO= 1.228344

                 CHAMBER   THROAT     EXIT
 Pinf/P            1.0000   1.7418   21.718
 P, BAR            22.000   12.631   1.0130
 T, K             3073.23  2888.70  1973.08
 RHO, KG/CU M    2.1902 0 1.3509 0 1.6159-1
 H, KJ/KG          149.58  -388.38 -2359.11
 U, KJ/KG         -854.88 -1323.35 -2986.00
 G, KJ/KG        -31667.6 -30295.1 -22786.5
 S, KJ/(KG)(K)    10.3530  10.3530  10.3530

 M, (1/n)          25.439   25.689   26.169
 (dLV/dLP)t      -1.01418 -1.01004 -1.00013
 (dLV/dLT)p        1.3023   1.2292   1.0040
 Cp, KJ/(KG)(K)    3.8993   3.4666   1.7144
 GAMMAs            1.1468   1.1508   1.2295
 SON VEL,M/SEC     1073.3   1037.3    878.0
 MACH NUMBER        0.000    1.000    2.551

 PERFORMANCE PARAMETERS

 Ae/At                      1.0000   3.8714
 CSTAR, M/SEC               1570.0   1570.0
 CF                         0.6607   1.4267
 Ivac, M/SEC                1938.6   2519.8
 Isp, M/SEC                 1037.3   2240.0


 MOLE FRACTIONS

 *CO              0.09964  0.09238  0.07248
 *CO2             0.09150  0.10064  0.12415
 *H               0.00816  0.00582  0.00026
 HO2              0.00001  0.00001  0.00000
 *H2              0.03770  0.03481  0.03718
 H2O              0.26135  0.27173  0.28546
 *NO              0.00733  0.00465  0.00002
 *N2              0.46317  0.46909  0.48022
 *O               0.00259  0.00143  0.00000
 *OH              0.02145  0.01500  0.00021
 *O2              0.00708  0.00443  0.00000

  * THERMODYNAMIC PROPERTIES FITTED TO 20000.K

    PRODUCTS WHICH WERE CONSIDERED BUT WHOSE MOLE FRACTIONS
    WERE LESS THAN 5.000000E-06 FOR ALL ASSIGNED CONDITIONS

 *C              *CH             CH2             CH3             CH2OH          
 CH3O            CH4             CH3OH           CH3OOH          *CN            
 CNN             COOH            *C2             C2H             C2H2,acetylene 
 C2H2,vinylidene CH2CO,ketene    O(CH)2O         HO(CO)2OH       C2H3,vinyl     
 CH3CN           CH3CO,acetyl    C2H4            C2H4O,ethylen-o CH3CHO,ethanal 
 CH3COOH         OHCH2COOH       C2H5            C2H6            CH3N2CH3       
 C2H5OH          CH3OCH3         CH3O2CH3        CCN             CNC            
 OCCN            C2N2            C2O             *C3             C3H3,1-propynl 
 C3H3,2-propynl  C3H4,allene     C3H4,propyne    C3H4,cyclo-     C3H5,allyl     
 C3H6,propylene  C3H6,cyclo-     C3H6O,propylox  C3H6O,acetone   C3H6O,propanal 
 C3H7,n-propyl   C3H7,i-propyl   C3H8            C3H8O,1propanol C3H8O,2propanol
 CNCOCN          C3O2            *C4             C4H2,butadiyne  C4H4,1,3-cyclo-
 C4H6,butadiene  C4H6,1butyne    C4H6,2butyne    C4H6,cyclo-     C4H8,1-butene  
 C4H8,cis2-buten C4H8,tr2-butene C4H8,isobutene  C4H8,cyclo-     (CH3COOH)2     
 C4H9,n-butyl    C4H9,i-butyl    C4H9,s-butyl    C4H9,t-butyl    C4H10,n-butane 
 C4H10,isobutane C4N2            *C5             C5H6,1,3cyclo-  C5H8,cyclo-    
 C5H10,1-pentene C5H10,cyclo-    C5H11,pentyl    C5H11,t-pentyl  C5H12,n-pentane
 C5H12,i-pentane CH3C(CH3)2CH3   C6H2            C6H5,phenyl     C6H5O,phenoxy  
 C6H6            C6H5OH,phenol   C6H10,cyclo-    C6H12,1-hexene  C6H12,cyclo-   
 C6H13,n-hexyl   C6H14,n-hexane  C7H7,benzyl     C7H8            C7H8O,cresol-mx
 C7H14,1-heptene C7H15,n-heptyl  C7H16,n-heptane C7H16,2-methylh C8H8,styrene   
 C8H10,ethylbenz C8H16,1-octene  C8H17,n-octyl   C8H18,n-octane  C8H18,isooctane
 C9H19,n-nonyl   C10H8,naphthale C10H21,n-decyl  C12H9,o-bipheny C12H10,biphenyl
 HCN             HCO             HCCN            HCCO            HNC            
 HNCO            HNO             HNO2            HNO3            HCHO,formaldehy
 HCOOH           H2O2            (HCOOH)2        *N              NCO            
 *NH             NH2             NH3             NH2OH           NO2            
 NO3             NCN             N2H2            NH2NO2          N2H4           
 N2O             N2O3            N2O4            N2O5            N3             
 N3H             O3              C(gr)           H2O(cr)         H2O(L)         

 NOTE. WEIGHT FRACTION OF FUEL IN TOTAL FUELS AND OF OXIDANT IN TOTAL OXIDANTS






 O/F =   4.300000

                       EFFECTIVE FUEL     EFFECTIVE OXIDANT        MIXTURE
 ENTHALPY                  h(2)/R              h(1)/R               h0/R
 (KG-MOL)(K)/KG       -0.84292002E+03      0.22296858E+03      0.21857521E+02

 KG-FORM.WT./KG             bi(2)               bi(1)               b0i
  *C                   0.39072302E-01      0.00000000E+00      0.73721325E-02
  *H                   0.12831859E+00      0.00000000E+00      0.24211055E-01
  *O                   0.25086995E-01      0.22720663E-01      0.23167141E-01
  *N                   0.00000000E+00      0.45441326E-01      0.36867491E-01

 POINT ITN      T            C           H           O           N 

   1    3    3080.948     -16.808     -10.603     -16.030     -13.076

 Pinf/Pt = 1.737914
   2    4    2900.605     -17.128     -10.819     -16.389     -13.234

 Pinf/Pt = 1.739751
   2    2    2900.263     -17.129     -10.819     -16.390     -13.234

   3    5    2007.483     -16.772     -11.464     -20.280     -13.831






              THEORETICAL ROCKET PERFORMANCE ASSUMING EQUILIBRIUM

           COMPOSITION DURING EXPANSION FROM INFINITE AREA COMBUSTOR

 Pin =   319.1 PSIA
 CASE =                

             REACTANT                    WT FRACTION      ENERGY      TEMP
                                          (SEE NOTE)     KJ/KG-MOL      K  
 FUEL        C2H5OH(L)                    0.9000000   -277526.835    298.000
 FUEL        H2O(L)                       0.1000000   -285841.390    298.000
 OXIDANT     N2O                          1.0000000     81594.206    298.000

 O/F=    4.30000  %FUEL= 18.867925  R,EQ.RATIO= 1.158960  PHI,EQ.RATIO= 1.199778

                 CHAMBER   THROAT     EXIT
 Pinf/P            1.0000   1.7398   21.718
 P, BAR            22.000   12.645   1.0130
 T, K             3080.95  2900.26  2007.48
 RHO, KG/CU M    2.1951 0 1.3539 0 1.6003-1
 H, KJ/KG          181.73  -354.17 -2333.78
 U, KJ/KG         -820.48 -1288.14 -2966.78
 G, KJ/KG        -31612.3 -30283.6 -23050.1
 S, KJ/(KG)(K)    10.3196  10.3196  10.3196

 M, (1/n)          25.560   25.819   26.368
 (dLV/dLP)t      -1.01504 -1.01108 -1.00017
 (dLV/dLT)p        1.3199   1.2518   1.0055
 Cp, KJ/(KG)(K)    4.0007   3.6129   1.7242
 GAMMAs            1.1450   1.1476   1.2266
 SON VEL,M/SEC     1071.2   1035.3    881.1
 MACH NUMBER        0.000    1.000    2.546

 PERFORMANCE PARAMETERS

 Ae/At                      1.0000   3.9050
 CSTAR, M/SEC               1569.5   1569.5
 CF                         0.6596   1.4291
 Ivac, M/SEC                1937.4   2525.2
 Isp, M/SEC                 1035.3   2243.0


 MOLE FRACTIONS

 *CO              0.09497  0.08719  0.06549
 *CO2             0.09346  0.10315  0.12890
 *H               0.00802  0.00577  0.00030
 HO2              0.00002  0.00001  0.00000
 *H2              0.03482  0.03171  0.03167
 H2O              0.25919  0.26977  0.28722
 *NO              0.00817  0.00539  0.00004
 *N2              0.46707  0.47324  0.48605
 *O               0.00293  0.00169  0.00000
 *OH              0.02276  0.01635  0.00031
 *O2              0.00857  0.00572  0.00001

  * THERMODYNAMIC PROPERTIES FITTED TO 20000.K

    PRODUCTS WHICH WERE CONSIDERED BUT WHOSE MOLE FRACTIONS
    WERE LESS THAN 5.000000E-06 FOR ALL ASSIGNED CONDITIONS

 *C              *CH             CH2             CH3             CH2OH          
 CH3O            CH4             CH3OH           CH3OOH          *CN            
 CNN             COOH            *C2             C2H             C2H2,acetylene 
 C2H2,vinylidene CH2CO,ketene    O(CH)2O         HO(CO)2OH       C2H3,vinyl     
 CH3CN           CH3CO,acetyl    C2H4            C2H4O,ethylen-o CH3CHO,ethanal 
 CH3COOH         OHCH2COOH       C2H5            C2H6            CH3N2CH3       
 C2H5OH          CH3OCH3         CH3O2CH3        CCN             CNC            
 OCCN            C2N2            C2O             *C3             C3H3,1-propynl 
 C3H3,2-propynl  C3H4,allene     C3H4,propyne    C3H4,cyclo-     C3H5,allyl     
 C3H6,propylene  C3H6,cyclo-     C3H6O,propylox  C3H6O,acetone   C3H6O,propanal 
 C3H7,n-propyl   C3H7,i-propyl   C3H8            C3H8O,1propanol C3H8O,2propanol
 CNCOCN          C3O2            *C4             C4H2,butadiyne  C4H4,1,3-cyclo-
 C4H6,butadiene  C4H6,1butyne    C4H6,2butyne    C4H6,cyclo-     C4H8,1-butene  
 C4H8,cis2-buten C4H8,tr2-butene C4H8,isobutene  C4H8,cyclo-     (CH3COOH)2     
 C4H9,n-butyl    C4H9,i-butyl    C4H9,s-butyl    C4H9,t-butyl    C4H10,n-butane 
 C4H10,isobutane C4N2            *C5             C5H6,1,3cyclo-  C5H8,cyclo-    
 C5H10,1-pentene C5H10,cyclo-    C5H11,pentyl    C5H11,t-pentyl  C5H12,n-pentane
 C5H12,i-pentane CH3C(CH3)2CH3   C6H2            C6H5,phenyl     C6H5O,phenoxy  
 C6H6            C6H5OH,phenol   C6H10,cyclo-    C6H12,1-hexene  C6H12,cyclo-   
 C6H13,n-hexyl   C6H14,n-hexane  C7H7,benzyl     C7H8            C7H8O,cresol-mx
 C7H14,1-heptene C7H15,n-heptyl  C7H16,n-heptane C7H16,2-methylh C8H8,styrene   
 C8H10,ethylbenz C8H16,1-octene  C8H17,n-octyl   C8H18,n-octane  C8H18,isooctane
 C9H19,n-nonyl   C10H8,naphthale C10H21,n-decyl  C12H9,o-bipheny C12H10,biphenyl
 HCN             HCO             HCCN            HCCO            HNC            
 HNCO            HNO             HNO2            HNO3            HCHO,formaldehy
 HCOOH           H2O2            (HCOOH)2        *N              NCO            
 *NH             NH2             NH3             NH2OH           NO2            
 NO3             NCN             N2H2            NH2NO2          N2H4           
 N2O             N2O3            N2O4            N2O5            N3             
 N3H             O3              C(gr)           H2O(cr)         H2O(L)         

 NOTE. WEIGHT FRACTION OF FUEL IN TOTAL FUELS AND OF OXIDANT IN TOTAL OXIDANTS






 O/F =   4.400000

                       EFFECTIVE FUEL     EFFECTIVE OXIDANT        MIXTURE
 ENTHALPY                  h(2)/R              h(1)/R               h0/R
 (KG-MOL)(K)/KG       -0.84292002E+03      0.22296858E+03      0.25581800E+02

 KG-FORM.WT./KG             bi(2)               bi(1)               b0i
  *C                   0.39072302E-01      0.00000000E+00      0.72356115E-02
  *H                   0.12831859E+00      0.00000000E+00      0.23762702E-01
  *O                   0.25086995E-01      0.22720663E-01      0.23158873E-01
  *N                   0.00000000E+00      0.45441326E-01      0.37026266E-01

 POINT ITN      T            C           H           O           N 

   1    3    3086.892     -16.938     -10.645     -15.946     -13.076

 Pinf/Pt = 1.737040
   2    4    2909.481     -17.291     -10.869     -16.281     -13.235

 Pinf/Pt = 1.738112
   2    2    2909.286     -17.291     -10.869     -16.282     -13.235

   3    5    2041.405     -17.233     -11.578     -19.881     -13.854






              THEORETICAL ROCKET PERFORMANCE ASSUMING EQUILIBRIUM

           COMPOSITION DURING EXPANSION FROM INFINITE AREA COMBUSTOR

 Pin =   319.1 PSIA
 CASE =                

             REACTANT                    WT FRACTION      ENERGY      TEMP
                                          (SEE NOTE)     KJ/KG-MOL      K  
 FUEL        C2H5OH(L)                    0.9000000   -277526.835    298.000
 FUEL        H2O(L)                       0.1000000   -285841.390    298.000
 OXIDANT     N2O                          1.0000000     81594.206    298.000

 O/F=    4.40000  %FUEL= 18.518519  R,EQ.RATIO= 1.137904  PHI,EQ.RATIO= 1.172510

                 CHAMBER   THROAT     EXIT
 Pinf/P            1.0000   1.7381   21.718
 P, BAR            22.000   12.657   1.0130
 T, K             3086.89  2909.29  2041.41
 RHO, KG/CU M    2.2007 0 1.3574 0 1.5853-1
 H, KJ/KG          212.70  -321.16 -2307.88
 U, KJ/KG         -786.98 -1253.64 -2946.88
 G, KJ/KG        -31542.2 -30249.0 -23307.8
 S, KJ/(KG)(K)    10.2870  10.2870  10.2870

 M, (1/n)          25.674   25.941   26.562
 (dLV/dLP)t      -1.01577 -1.01200 -1.00024
 (dLV/dLT)p        1.3347   1.2718   1.0076
 Cp, KJ/(KG)(K)    4.0829   3.7387   1.7407
 GAMMAs            1.1435   1.1450   1.2230
 SON VEL,M/SEC     1069.2   1033.3    884.0
 MACH NUMBER        0.000    1.000    2.540

 PERFORMANCE PARAMETERS

 Ae/At                      1.0000   3.9406
 CSTAR, M/SEC               1568.5   1568.5
 CF                         0.6588   1.4315
 Ivac, M/SEC                1935.7   2529.9
 Isp, M/SEC                 1033.3   2245.3


 MOLE FRACTIONS

 *CO              0.09053  0.08230  0.05838
 *CO2             0.09523  0.10540  0.13382
 *H               0.00785  0.00568  0.00035
 HO2              0.00002  0.00001  0.00000
 *H2              0.03224  0.02898  0.02661
 H2O              0.25689  0.26759  0.28858
 *NO              0.00901  0.00613  0.00006
 NO2              0.00001  0.00000  0.00000
 *N2              0.47079  0.47717  0.49172
 *O               0.00326  0.00196  0.00000
 *OH              0.02395  0.01759  0.00046
 *O2              0.01021  0.00718  0.00002

  * THERMODYNAMIC PROPERTIES FITTED TO 20000.K

    PRODUCTS WHICH WERE CONSIDERED BUT WHOSE MOLE FRACTIONS
    WERE LESS THAN 5.000000E-06 FOR ALL ASSIGNED CONDITIONS

 *C              *CH             CH2             CH3             CH2OH          
 CH3O            CH4             CH3OH           CH3OOH          *CN            
 CNN             COOH            *C2             C2H             C2H2,acetylene 
 C2H2,vinylidene CH2CO,ketene    O(CH)2O         HO(CO)2OH       C2H3,vinyl     
 CH3CN           CH3CO,acetyl    C2H4            C2H4O,ethylen-o CH3CHO,ethanal 
 CH3COOH         OHCH2COOH       C2H5            C2H6            CH3N2CH3       
 C2H5OH          CH3OCH3         CH3O2CH3        CCN             CNC            
 OCCN            C2N2            C2O             *C3             C3H3,1-propynl 
 C3H3,2-propynl  C3H4,allene     C3H4,propyne    C3H4,cyclo-     C3H5,allyl     
 C3H6,propylene  C3H6,cyclo-     C3H6O,propylox  C3H6O,acetone   C3H6O,propanal 
 C3H7,n-propyl   C3H7,i-propyl   C3H8            C3H8O,1propanol C3H8O,2propanol
 CNCOCN          C3O2            *C4             C4H2,butadiyne  C4H4,1,3-cyclo-
 C4H6,butadiene  C4H6,1butyne    C4H6,2butyne    C4H6,cyclo-     C4H8,1-butene  
 C4H8,cis2-buten C4H8,tr2-butene C4H8,isobutene  C4H8,cyclo-     (CH3COOH)2     
 C4H9,n-butyl    C4H9,i-butyl    C4H9,s-butyl    C4H9,t-butyl    C4H10,n-butane 
 C4H10,isobutane C4N2            *C5             C5H6,1,3cyclo-  C5H8,cyclo-    
 C5H10,1-pentene C5H10,cyclo-    C5H11,pentyl    C5H11,t-pentyl  C5H12,n-pentane
 C5H12,i-pentane CH3C(CH3)2CH3   C6H2            C6H5,phenyl     C6H5O,phenoxy  
 C6H6            C6H5OH,phenol   C6H10,cyclo-    C6H12,1-hexene  C6H12,cyclo-   
 C6H13,n-hexyl   C6H14,n-hexane  C7H7,benzyl     C7H8            C7H8O,cresol-mx
 C7H14,1-heptene C7H15,n-heptyl  C7H16,n-heptane C7H16,2-methylh C8H8,styrene   
 C8H10,ethylbenz C8H16,1-octene  C8H17,n-octyl   C8H18,n-octane  C8H18,isooctane
 C9H19,n-nonyl   C10H8,naphthale C10H21,n-decyl  C12H9,o-bipheny C12H10,biphenyl
 HCN             HCO             HCCN            HCCO            HNC            
 HNCO            HNO             HNO2            HNO3            HCHO,formaldehy
 HCOOH           H2O2            (HCOOH)2        *N              NCO            
 *NH             NH2             NH3             NH2OH           NO3            
 NCN             N2H2            NH2NO2          N2H4            N2O            
 N2O3            N2O4            N2O5            N3              N3H            
 O3              C(gr)           H2O(cr)         H2O(L)         

 NOTE. WEIGHT FRACTION OF FUEL IN TOTAL FUELS AND OF OXIDANT IN TOTAL OXIDANTS






 O/F =   4.500000

                       EFFECTIVE FUEL     EFFECTIVE OXIDANT        MIXTURE
 ENTHALPY                  h(2)/R              h(1)/R               h0/R
 (KG-MOL)(K)/KG       -0.84292002E+03      0.22296858E+03      0.29170650E+02

 KG-FORM.WT./KG             bi(2)               bi(1)               b0i
  *C                   0.39072302E-01      0.00000000E+00      0.71040549E-02
  *H                   0.12831859E+00      0.00000000E+00      0.23330653E-01
  *O                   0.25086995E-01      0.22720663E-01      0.23150905E-01
  *N                   0.00000000E+00      0.45441326E-01      0.37179267E-01

 POINT ITN      T            C           H           O           N 

   1    3    3091.299     -17.061     -10.685     -15.870     -13.075

 Pinf/Pt = 1.736361
   2    4    2916.189     -17.444     -10.916     -16.184     -13.235

 Pinf/Pt = 1.736839
   2    1    2916.104     -17.444     -10.917     -16.184     -13.235

   3    5    2074.662     -17.718     -11.699     -19.479     -13.876






              THEORETICAL ROCKET PERFORMANCE ASSUMING EQUILIBRIUM

           COMPOSITION DURING EXPANSION FROM INFINITE AREA COMBUSTOR

 Pin =   319.1 PSIA
 CASE =                

             REACTANT                    WT FRACTION      ENERGY      TEMP
                                          (SEE NOTE)     KJ/KG-MOL      K  
 FUEL        C2H5OH(L)                    0.9000000   -277526.835    298.000
 FUEL        H2O(L)                       0.1000000   -285841.390    298.000
 OXIDANT     N2O                          1.0000000     81594.206    298.000

 O/F=    4.50000  %FUEL= 18.181818  R,EQ.RATIO= 1.117599  PHI,EQ.RATIO= 1.146454

                 CHAMBER   THROAT     EXIT
 Pinf/P            1.0000   1.7368   21.718
 P, BAR            22.000   12.667   1.0130
 T, K             3091.30  2916.10  2074.66
 RHO, KG/CU M    2.2068 0 1.3612 0 1.5709-1
 H, KJ/KG          242.54  -289.31 -2281.30
 U, KJ/KG         -754.38 -1219.89 -2926.14
 G, KJ/KG        -31459.8 -30194.9 -23557.7
 S, KJ/(KG)(K)    10.2553  10.2553  10.2553

 M, (1/n)          25.782   26.055   26.750
 (dLV/dLP)t      -1.01636 -1.01277 -1.00034
 (dLV/dLT)p        1.3466   1.2886   1.0108
 Cp, KJ/(KG)(K)    4.1467   3.8415   1.7683
 GAMMAs            1.1424   1.1431   1.2184
 SON VEL,M/SEC     1067.2   1031.4    886.4
 MACH NUMBER        0.000    1.000    2.535

 PERFORMANCE PARAMETERS

 Ae/At                      1.0000   3.9776
 CSTAR, M/SEC               1567.1   1567.1
 CF                         0.6581   1.4337
 Ivac, M/SEC                1933.6   2533.7
 Isp, M/SEC                 1031.4   2246.7


 MOLE FRACTIONS

 *CO              0.08633  0.07770  0.05116
 *CO2             0.09682  0.10739  0.13887
 *H               0.00766  0.00556  0.00039
 HO2              0.00002  0.00001  0.00000
 *H2              0.02992  0.02656  0.02200
 H2O              0.25448  0.26523  0.28953
 *NO              0.00984  0.00688  0.00011
 NO2              0.00001  0.00000  0.00000
 *N2              0.47435  0.48091  0.49723
 *O               0.00357  0.00222  0.00001
 *OH              0.02503  0.01871  0.00066
 *O2              0.01196  0.00881  0.00004

  * THERMODYNAMIC PROPERTIES FITTED TO 20000.K

    PRODUCTS WHICH WERE CONSIDERED BUT WHOSE MOLE FRACTIONS
    WERE LESS THAN 5.000000E-06 FOR ALL ASSIGNED CONDITIONS

 *C              *CH             CH2             CH3             CH2OH          
 CH3O            CH4             CH3OH           CH3OOH          *CN            
 CNN             COOH            *C2             C2H             C2H2,acetylene 
 C2H2,vinylidene CH2CO,ketene    O(CH)2O         HO(CO)2OH       C2H3,vinyl     
 CH3CN           CH3CO,acetyl    C2H4            C2H4O,ethylen-o CH3CHO,ethanal 
 CH3COOH         OHCH2COOH       C2H5            C2H6            CH3N2CH3       
 C2H5OH          CH3OCH3         CH3O2CH3        CCN             CNC            
 OCCN            C2N2            C2O             *C3             C3H3,1-propynl 
 C3H3,2-propynl  C3H4,allene     C3H4,propyne    C3H4,cyclo-     C3H5,allyl     
 C3H6,propylene  C3H6,cyclo-     C3H6O,propylox  C3H6O,acetone   C3H6O,propanal 
 C3H7,n-propyl   C3H7,i-propyl   C3H8            C3H8O,1propanol C3H8O,2propanol
 CNCOCN          C3O2            *C4             C4H2,butadiyne  C4H4,1,3-cyclo-
 C4H6,butadiene  C4H6,1butyne    C4H6,2butyne    C4H6,cyclo-     C4H8,1-butene  
 C4H8,cis2-buten C4H8,tr2-butene C4H8,isobutene  C4H8,cyclo-     (CH3COOH)2     
 C4H9,n-butyl    C4H9,i-butyl    C4H9,s-butyl    C4H9,t-butyl    C4H10,n-butane 
 C4H10,isobutane C4N2            *C5             C5H6,1,3cyclo-  C5H8,cyclo-    
 C5H10,1-pentene C5H10,cyclo-    C5H11,pentyl    C5H11,t-pentyl  C5H12,n-pentane
 C5H12,i-pentane CH3C(CH3)2CH3   C6H2            C6H5,phenyl     C6H5O,phenoxy  
 C6H6            C6H5OH,phenol   C6H10,cyclo-    C6H12,1-hexene  C6H12,cyclo-   
 C6H13,n-hexyl   C6H14,n-hexane  C7H7,benzyl     C7H8            C7H8O,cresol-mx
 C7H14,1-heptene C7H15,n-heptyl  C7H16,n-heptane C7H16,2-methylh C8H8,styrene   
 C8H10,ethylbenz C8H16,1-octene  C8H17,n-octyl   C8H18,n-octane  C8H18,isooctane
 C9H19,n-nonyl   C10H8,naphthale C10H21,n-decyl  C12H9,o-bipheny C12H10,biphenyl
 HCN             HCO             HCCN            HCCO            HNC            
 HNCO            HNO             HNO2            HNO3            HCHO,formaldehy
 HCOOH           H2O2            (HCOOH)2        *N              NCO            
 *NH             NH2             NH3             NH2OH           NO3            
 NCN             N2H2            NH2NO2          N2H4            N2O            
 N2O3            N2O4            N2O5            N3              N3H            
 O3              C(gr)           H2O(cr)         H2O(L)         

 NOTE. WEIGHT FRACTION OF FUEL IN TOTAL FUELS AND OF OXIDANT IN TOTAL OXIDANTS






 O/F =   4.600000

                       EFFECTIVE FUEL     EFFECTIVE OXIDANT        MIXTURE
 ENTHALPY                  h(2)/R              h(1)/R               h0/R
 (KG-MOL)(K)/KG       -0.84292002E+03      0.22296858E+03      0.32631328E+02

 KG-FORM.WT./KG             bi(2)               bi(1)               b0i
  *C                   0.39072302E-01      0.00000000E+00      0.69771968E-02
  *H                   0.12831859E+00      0.00000000E+00      0.22914034E-01
  *O                   0.25086995E-01      0.22720663E-01      0.23143222E-01
  *N                   0.00000000E+00      0.45441326E-01      0.37326804E-01

 POINT ITN      T            C           H           O           N 

   1    3    3094.380     -17.178     -10.723     -15.800     -13.073

 Pinf/Pt = 1.735845
   2    4    2921.031     -17.588     -10.961     -16.095     -13.234

   3    5    2106.854     -18.234     -11.829     -19.072     -13.897






              THEORETICAL ROCKET PERFORMANCE ASSUMING EQUILIBRIUM

           COMPOSITION DURING EXPANSION FROM INFINITE AREA COMBUSTOR

 Pin =   319.1 PSIA
 CASE =                

             REACTANT                    WT FRACTION      ENERGY      TEMP
                                          (SEE NOTE)     KJ/KG-MOL      K  
 FUEL        C2H5OH(L)                    0.9000000   -277526.835    298.000
 FUEL        H2O(L)                       0.1000000   -285841.390    298.000
 OXIDANT     N2O                          1.0000000     81594.206    298.000

 O/F=    4.60000  %FUEL= 17.857143  R,EQ.RATIO= 1.098007  PHI,EQ.RATIO= 1.121531

                 CHAMBER   THROAT     EXIT
 Pinf/P            1.0000   1.7358   21.718
 P, BAR            22.000   12.674   1.0130
 T, K             3094.38  2921.03  2106.85
 RHO, KG/CU M    2.2133 0 1.3652 0 1.5574-1
 H, KJ/KG          271.31  -258.55 -2253.92
 U, KJ/KG         -722.66 -1186.88 -2904.35
 G, KJ/KG        -31367.3 -30124.7 -23795.5
 S, KJ/(KG)(K)    10.2245  10.2245  10.2245

 M, (1/n)          25.884   26.162   26.932
 (dLV/dLP)t      -1.01683 -1.01340 -1.00050
 (dLV/dLT)p        1.3560   1.3021   1.0159
 Cp, KJ/(KG)(K)    4.1931   3.9211   1.8146
 GAMMAs            1.1416   1.1416   1.2122
 SON VEL,M/SEC     1065.2   1029.4    888.0
 MACH NUMBER        0.000    1.000    2.531

 PERFORMANCE PARAMETERS

 Ae/At                      1.0000   4.0155
 CSTAR, M/SEC               1565.4   1565.4
 CF                         0.6576   1.4356
 Ivac, M/SEC                1931.2   2536.8
 Isp, M/SEC                 1029.4   2247.3


 MOLE FRACTIONS

 *CO              0.08236  0.07339  0.04391
 *CO2             0.09824  0.10915  0.14400
 *H               0.00745  0.00541  0.00043
 HO2              0.00002  0.00001  0.00000
 *H2              0.02783  0.02442  0.01783
 H2O              0.25199  0.26274  0.29004
 *NO              0.01066  0.00762  0.00018
 NO2              0.00001  0.00000  0.00000
 *N2              0.47775  0.48446  0.50255
 *O               0.00388  0.00248  0.00001
 *OH              0.02598  0.01972  0.00095
 *O2              0.01381  0.01059  0.00010

  * THERMODYNAMIC PROPERTIES FITTED TO 20000.K

    PRODUCTS WHICH WERE CONSIDERED BUT WHOSE MOLE FRACTIONS
    WERE LESS THAN 5.000000E-06 FOR ALL ASSIGNED CONDITIONS

 *C              *CH             CH2             CH3             CH2OH          
 CH3O            CH4             CH3OH           CH3OOH          *CN            
 CNN             COOH            *C2             C2H             C2H2,acetylene 
 C2H2,vinylidene CH2CO,ketene    O(CH)2O         HO(CO)2OH       C2H3,vinyl     
 CH3CN           CH3CO,acetyl    C2H4            C2H4O,ethylen-o CH3CHO,ethanal 
 CH3COOH         OHCH2COOH       C2H5            C2H6            CH3N2CH3       
 C2H5OH          CH3OCH3         CH3O2CH3        CCN             CNC            
 OCCN            C2N2            C2O             *C3             C3H3,1-propynl 
 C3H3,2-propynl  C3H4,allene     C3H4,propyne    C3H4,cyclo-     C3H5,allyl     
 C3H6,propylene  C3H6,cyclo-     C3H6O,propylox  C3H6O,acetone   C3H6O,propanal 
 C3H7,n-propyl   C3H7,i-propyl   C3H8            C3H8O,1propanol C3H8O,2propanol
 CNCOCN          C3O2            *C4             C4H2,butadiyne  C4H4,1,3-cyclo-
 C4H6,butadiene  C4H6,1butyne    C4H6,2butyne    C4H6,cyclo-     C4H8,1-butene  
 C4H8,cis2-buten C4H8,tr2-butene C4H8,isobutene  C4H8,cyclo-     (CH3COOH)2     
 C4H9,n-butyl    C4H9,i-butyl    C4H9,s-butyl    C4H9,t-butyl    C4H10,n-butane 
 C4H10,isobutane C4N2            *C5             C5H6,1,3cyclo-  C5H8,cyclo-    
 C5H10,1-pentene C5H10,cyclo-    C5H11,pentyl    C5H11,t-pentyl  C5H12,n-pentane
 C5H12,i-pentane CH3C(CH3)2CH3   C6H2            C6H5,phenyl     C6H5O,phenoxy  
 C6H6            C6H5OH,phenol   C6H10,cyclo-    C6H12,1-hexene  C6H12,cyclo-   
 C6H13,n-hexyl   C6H14,n-hexane  C7H7,benzyl     C7H8            C7H8O,cresol-mx
 C7H14,1-heptene C7H15,n-heptyl  C7H16,n-heptane C7H16,2-methylh C8H8,styrene   
 C8H10,ethylbenz C8H16,1-octene  C8H17,n-octyl   C8H18,n-octane  C8H18,isooctane
 C9H19,n-nonyl   C10H8,naphthale C10H21,n-decyl  C12H9,o-bipheny C12H10,biphenyl
 HCN             HCO             HCCN            HCCO            HNC            
 HNCO            HNO             HNO2            HNO3            HCHO,formaldehy
 HCOOH           H2O2            (HCOOH)2        *N              NCO            
 *NH             NH2             NH3             NH2OH           NO3            
 NCN             N2H2            NH2NO2          N2H4            N2O            
 N2O3            N2O4            N2O5            N3              N3H            
 O3              C(gr)           H2O(cr)         H2O(L)         

 NOTE. WEIGHT FRACTION OF FUEL IN TOTAL FUELS AND OF OXIDANT IN TOTAL OXIDANTS






 O/F =   4.700000

                       EFFECTIVE FUEL     EFFECTIVE OXIDANT        MIXTURE
 ENTHALPY                  h(2)/R              h(1)/R               h0/R
 (KG-MOL)(K)/KG       -0.84292002E+03      0.22296858E+03      0.35970578E+02

 KG-FORM.WT./KG             bi(2)               bi(1)               b0i
  *C                   0.39072302E-01      0.00000000E+00      0.68547898E-02
  *H                   0.12831859E+00      0.00000000E+00      0.22512034E-01
  *O                   0.25086995E-01      0.22720663E-01      0.23135809E-01
  *N                   0.00000000E+00      0.45441326E-01      0.37469164E-01

 POINT ITN      T            C           H           O           N 

   1    3    3096.319     -17.289     -10.759     -15.735     -13.071

 Pinf/Pt = 1.735465
   2    4    2924.274     -17.725     -11.004     -16.014     -13.233

 Pinf/Pt = 1.735169
   2    1    2924.326     -17.725     -11.004     -16.014     -13.233

   3    5    2137.165     -18.784     -11.969     -18.660     -13.916






              THEORETICAL ROCKET PERFORMANCE ASSUMING EQUILIBRIUM

           COMPOSITION DURING EXPANSION FROM INFINITE AREA COMBUSTOR

 Pin =   319.1 PSIA
 CASE =                

             REACTANT                    WT FRACTION      ENERGY      TEMP
                                          (SEE NOTE)     KJ/KG-MOL      K  
 FUEL        C2H5OH(L)                    0.9000000   -277526.835    298.000
 FUEL        H2O(L)                       0.1000000   -285841.390    298.000
 OXIDANT     N2O                          1.0000000     81594.206    298.000

 O/F=    4.70000  %FUEL= 17.543860  R,EQ.RATIO= 1.079089  PHI,EQ.RATIO= 1.097669

                 CHAMBER   THROAT     EXIT
 Pinf/P            1.0000   1.7352   21.718
 P, BAR            22.000   12.679   1.0130
 T, K             3096.32  2924.33  2137.17
 RHO, KG/CU M    2.2203 0 1.3695 0 1.5452-1
 H, KJ/KG          299.08  -228.86 -2225.62
 U, KJ/KG         -691.80 -1154.67 -2881.21
 G, KJ/KG        -31266.5 -30041.1 -24013.1
 S, KJ/(KG)(K)    10.1946  10.1946  10.1946

 M, (1/n)          25.981   26.263   27.105
 (dLV/dLP)t      -1.01717 -1.01388 -1.00078
 (dLV/dLT)p        1.3629   1.3124   1.0246
 Cp, KJ/(KG)(K)    4.2240   3.9783   1.8939
 GAMMAs            1.1410   1.1405   1.2037
 SON VEL,M/SEC     1063.3   1027.6    888.3
 MACH NUMBER        0.000    1.000    2.530

 PERFORMANCE PARAMETERS

 Ae/At                      1.0000   4.0529
 CSTAR, M/SEC               1563.4   1563.4
 CF                         0.6573   1.4373
 Ivac, M/SEC                1928.5   2538.8
 Isp, M/SEC                 1027.6   2247.1


 MOLE FRACTIONS

 *CO              0.07860  0.06934  0.03673
 *CO2             0.09950  0.11068  0.14906
 *H               0.00724  0.00525  0.00046
 HO2              0.00003  0.00001  0.00000
 *H2              0.02595  0.02251  0.01411
 H2O              0.24945  0.26017  0.29008
 *NO              0.01145  0.00834  0.00030
 NO2              0.00001  0.00000  0.00000
 *N2              0.48101  0.48784  0.50764
 *O               0.00417  0.00272  0.00003
 *OH              0.02682  0.02060  0.00135
 *O2              0.01577  0.01251  0.00024

  * THERMODYNAMIC PROPERTIES FITTED TO 20000.K

    PRODUCTS WHICH WERE CONSIDERED BUT WHOSE MOLE FRACTIONS
    WERE LESS THAN 5.000000E-06 FOR ALL ASSIGNED CONDITIONS

 *C              *CH             CH2             CH3             CH2OH          
 CH3O            CH4             CH3OH           CH3OOH          *CN            
 CNN             COOH            *C2             C2H             C2H2,acetylene 
 C2H2,vinylidene CH2CO,ketene    O(CH)2O         HO(CO)2OH       C2H3,vinyl     
 CH3CN           CH3CO,acetyl    C2H4            C2H4O,ethylen-o CH3CHO,ethanal 
 CH3COOH         OHCH2COOH       C2H5            C2H6            CH3N2CH3       
 C2H5OH          CH3OCH3         CH3O2CH3        CCN             CNC            
 OCCN            C2N2            C2O             *C3             C3H3,1-propynl 
 C3H3,2-propynl  C3H4,allene     C3H4,propyne    C3H4,cyclo-     C3H5,allyl     
 C3H6,propylene  C3H6,cyclo-     C3H6O,propylox  C3H6O,acetone   C3H6O,propanal 
 C3H7,n-propyl   C3H7,i-propyl   C3H8            C3H8O,1propanol C3H8O,2propanol
 CNCOCN          C3O2            *C4             C4H2,butadiyne  C4H4,1,3-cyclo-
 C4H6,butadiene  C4H6,1butyne    C4H6,2butyne    C4H6,cyclo-     C4H8,1-butene  
 C4H8,cis2-buten C4H8,tr2-butene C4H8,isobutene  C4H8,cyclo-     (CH3COOH)2     
 C4H9,n-butyl    C4H9,i-butyl    C4H9,s-butyl    C4H9,t-butyl    C4H10,n-butane 
 C4H10,isobutane C4N2            *C5             C5H6,1,3cyclo-  C5H8,cyclo-    
 C5H10,1-pentene C5H10,cyclo-    C5H11,pentyl    C5H11,t-pentyl  C5H12,n-pentane
 C5H12,i-pentane CH3C(CH3)2CH3   C6H2            C6H5,phenyl     C6H5O,phenoxy  
 C6H6            C6H5OH,phenol   C6H10,cyclo-    C6H12,1-hexene  C6H12,cyclo-   
 C6H13,n-hexyl   C6H14,n-hexane  C7H7,benzyl     C7H8            C7H8O,cresol-mx
 C7H14,1-heptene C7H15,n-heptyl  C7H16,n-heptane C7H16,2-methylh C8H8,styrene   
 C8H10,ethylbenz C8H16,1-octene  C8H17,n-octyl   C8H18,n-octane  C8H18,isooctane
 C9H19,n-nonyl   C10H8,naphthale C10H21,n-decyl  C12H9,o-bipheny C12H10,biphenyl
 HCN             HCO             HCCN            HCCO            HNC            
 HNCO            HNO             HNO2            HNO3            HCHO,formaldehy
 HCOOH           H2O2            (HCOOH)2        *N              NCO            
 *NH             NH2             NH3             NH2OH           NO3            
 NCN             N2H2            NH2NO2          N2H4            N2O            
 N2O3            N2O4            N2O5            N3              N3H            
 O3              C(gr)           H2O(cr)         H2O(L)         

 NOTE. WEIGHT FRACTION OF FUEL IN TOTAL FUELS AND OF OXIDANT IN TOTAL OXIDANTS



